LTspice 24.1.0 for Windows
Circuit: C:\Users\yehan\Documents\Uni\Esperimentazioni-Elettronica\- OPAMP\OP27\Non-Invertente\OP27_LTSpice_Sim.net
Start Time: Wed Jan 15 17:46:24 2025
solver = Normal
Maximum thread count: 22
tnom = 27
temp = 27
method = trap
C:\Users\yehan\Documents\Uni\Esperimentazioni-Elettronica\- OPAMP\OP27\Non-Invertente\OP27_LTSpice_Sim.net(3): WARNING: Specified period is not longer than the sum of Trise, Tfall, and Ton. Increasing period to 1.

Vin IN 0 PULSE(0 20e-3 0 20e-9 0 1 1e-6) Rser=0.5
^^^^^^^^^^^^^^^^^^^^^^^^^^^^^^^^^^^^^^^^^^^^^^^^^
C:\Users\yehan\Documents\Uni\Esperimentazioni-Elettronica\- OPAMP\OP27\Non-Invertente\OP27_LTSpice_Sim.net(3): Limiting fall time to 2.0989e-16.

Vin IN 0 PULSE(0 20e-3 0 20e-9 0 1 1e-6) Rser=0.5
^^^^^^^^^^^^^^^^^^^^^^^^^^^^^^^^^^^^^^^^^^^^^^^^^
Direct Newton iteration for .op point succeeded.
Total elapsed time: 0.056 seconds.

Files loaded:
C:\Users\yehan\Documents\Uni\Esperimentazioni-Elettronica\- OPAMP\OP27\Non-Invertente\OP27_LTSpice_Sim.net
C:\Users\yehan\AppData\Local\LTspice\lib\sub\ADI.lib

